03_OpenDSS_Circuits/Commonwealth_Circuit_Opendss/SourceRegulator.dss
New Transformer.COMMONWEALTH_RET_01311205_1 Phases=1 Windings=2 XHL=0.1 %LoadLoss=0.001 Buses=[COMMONWEALTH_RET_01311205.1 COMMONWEALTH_RET_01311205_reg.1] kVs=[ 7.19955785679463   7.19955785679463 ]
New RegControl.COMMONWEALTH_RET_01311205_1 Transformer=COMMONWEALTH_RET_01311205_1 Winding=2 Vreg= 122.98315227577  Band= 1 PTratio= 59.9963154732886  CTPrim= 100  R= 0  X= 0 
New Transformer.COMMONWEALTH_RET_01311205_2 Phases=1 Windings=2 XHL=0.1 %LoadLoss=0.001 Buses=[COMMONWEALTH_RET_01311205.2 COMMONWEALTH_RET_01311205_reg.2] kVs=[ 7.19955785679463   7.19955785679463 ]
New RegControl.COMMONWEALTH_RET_01311205_2 Transformer=COMMONWEALTH_RET_01311205_2 Winding=2 Vreg= 122.98315227577  Band= 1 PTratio= 59.9963154732886  CTPrim= 100  R= 0  X= 0 
New Transformer.COMMONWEALTH_RET_01311205_3 Phases=1 Windings=2 XHL=0.1 %LoadLoss=0.001 Buses=[COMMONWEALTH_RET_01311205.3 COMMONWEALTH_RET_01311205_reg.3] kVs=[ 7.19955785679463   7.19955785679463 ]
New RegControl.COMMONWEALTH_RET_01311205_3 Transformer=COMMONWEALTH_RET_01311205_3 Winding=2 Vreg= 122.98315227577  Band= 1 PTratio= 59.9963154732886  CTPrim= 100  R= 0  X= 0 
