03_OpenDSS_Circuits/Commonwealth_Circuit_Opendss/UGLines.DSS
New Line.264256886 Bus1=260762272.1.2.3 Bus2=264256884.1.2.3 LineCode=1/0-AL-HMWPECN-15KV Phases= 3  Length=146.400000 units=m
New Line.263962003 Bus1=263962000.2 Bus2=261302041.2 LineCode=1/0-AL-TRXLPELCJ-15KV Phases= 1  Length=13.030000 units=m
New Line.260761331 Bus1=260761328.1 Bus2=260761333.1 LineCode=1/0-AL-HMWPECN-15KV Phases= 1  Length=81.460000 units=m
New Line.264256882 Bus1=264256884.1.2.3 Bus2=260762277.1.2.3 LineCode=1/0-AL-HMWPECN-15KV Phases= 3  Length=1.530000 units=m
New Line.260761151 Bus1=260761148.3 Bus2=260761153.3 LineCode=2-AL-HMWPECN-15KV Phases= 1  Length=37.820000 units=m
New Line.260761156 Bus1=260761153.3 Bus2=260761158.3 LineCode=2-AL-HMWPECN-15KV Phases= 1  Length=18.080000 units=m
New Line.260761296 Bus1=260761293.3 Bus2=260761298.3 LineCode=1/0-AL-HMWPECN-15KV Phases= 1  Length=62.690000 units=m
New Line.260761311 Bus1=260761308.2 Bus2=260761313.2 LineCode=1/0-AL-HMWPECN-15KV Phases= 1  Length=11.630000 units=m
New Line.260760191 Bus1=260760188.1.2.3 Bus2=260760193.1.2.3 LineCode=350-AL-XLPEDWJ-15KV Phases= 3  Length=162.100000 units=m
New Line.261302049 Bus1=261302041.2 Bus2=261302051.2 LineCode=1/0-AL-TRXLPELCJ-15KV Phases= 1  Length=41.370000 units=m
New Line.263530723 Bus1=263530720.1.2.3 Bus2=260760188.1.2.3 LineCode=350-AL-XLPEDWJ-15KV Phases= 3  Length=106.300000 units=m
New Line.260761094 Bus1=260761091.1 Bus2=260761086.1 LineCode=1/0-AL-HMWPECN-15KV Phases= 1  Length=64.640000 units=m
New Line.261302044 Bus1=261302045.2 Bus2=261245654.2 LineCode=1/0-AL-TRXLPELCJ-15KV Phases= 1  Length=112.800000 units=m
New Line.263530682 Bus1=258896517.1 Bus2=263530684.1 LineCode=1/0-AL-HMWPECN-15KV Phases= 1  Length=1.530000 units=m
New Line.263530687 Bus1=263530684.1 Bus2=260762257.1 LineCode=1/0-AL-HMWPECN-15KV Phases= 1  Length=32.780000 units=m
New Line.260761119 Bus1=260761116.3 Bus2=260761121.3 LineCode=1/0-AL-TRXLPELCJ-15KV Phases= 1  Length=112.000000 units=m
New Line.264308703 Bus1=260761081.1 Bus2=264308701.1 LineCode=1/0-AL-HMWPECN-15KV Phases= 1  Length=51.200000 units=m
New Line.617632356 Bus1=617632353.2 Bus2=260761218.2 LineCode=1/0-AL-TRXLPELCJ-15KV Phases= 1  Length=19.430000 units=m
New Line.263530700 Bus1=258896544.1 Bus2=263530702.1 LineCode=1/0-AL-HMWPECN-15KV Phases= 1  Length=1.530000 units=m
New Line.263997294 Bus1=258908474.3 Bus2=263997296.3 LineCode=1/0-AL-TRXLPELCJ-15KV Phases= 1  Length=1.530000 units=m
New Line.617632351 Bus1=258904493.2 Bus2=617632353.2 LineCode=1/0-AL-TRXLPELCJ-15KV Phases= 1  Length=1.510000 units=m
New Line.263530705 Bus1=263530702.1 Bus2=260760205.1 LineCode=1/0-AL-HMWPECN-15KV Phases= 1  Length=46.010000 units=m
New Line.263997299 Bus1=263997296.3 Bus2=261282305.3 LineCode=1/0-AL-TRXLPELCJ-15KV Phases= 1  Length=22.760000 units=m
New Line.263530709 Bus1=258896551.1.2.3 Bus2=263530711.1.2.3 LineCode=350-AL-XLPEDWJ-15KV Phases= 3  Length=1.520000 units=m
New Line.263533203 Bus1=258904693.2 Bus2=263533205.2 LineCode=1/0-AL-HMWPECN-15KV Phases= 1  Length=1.520000 units=m
New Line.263533208 Bus1=263533205.2 Bus2=260761308.2 LineCode=1/0-AL-HMWPECN-15KV Phases= 1  Length=80.100000 units=m
New Line.617632317 Bus1=258904498.2 Bus2=617632319.2 LineCode=1/0-AL-TRXLPELCJ-15KV Phases= 1  Length=1.540000 units=m
New Line.263533122 Bus1=258904478.3 Bus2=263533124.3 LineCode=1/0-AL-TRXLPELCJ-15KV Phases= 1  Length=1.530000 units=m
New Line.263533127 Bus1=263533124.3 Bus2=260761243.3 LineCode=1/0-AL-TRXLPELCJ-15KV Phases= 1  Length=22.860000 units=m
New Line.263533082 Bus1=263533079.3 Bus2=260761148.3 LineCode=1/0-AL-HMWPECN-15KV Phases= 1  Length=43.150000 units=m
New Line.263533001 Bus1=263532998.2 Bus2=260761071.2 LineCode=1/0-AL-HMWPECN-15KV Phases= 1  Length=51.750000 units=m
New Line.263533100 Bus1=263533097.1.2.3 Bus2=260761141.1.2.3 LineCode=2-AL-HMWPECN-15KV Phases= 3  Length=18.670000 units=m
New Line.263533104 Bus1=258904391.1.2.3 Bus2=263533106.1.2.3 LineCode=1/0-AL-HMWPECN-15KV Phases= 3  Length=1.530000 units=m
New Line.263533185 Bus1=258904666.1 Bus2=263533187.1 LineCode=1/0-AL-HMWPECN-15KV Phases= 1  Length=1.520000 units=m
New Line.263533109 Bus1=263533106.1.2.3 Bus2=260761136.1.2.3 LineCode=1/0-AL-HMWPECN-15KV Phases= 3  Length=21.850000 units=m
New Line.263857509 Bus1=259365163.3 Bus2=263857511.3 LineCode=1/0-AL-TRXLPELCJ-15KV Phases= 1  Length=1.520000 units=m
New Line.263534343 Bus1=263534340.1.2.3 Bus2=260762267.1.2.3 LineCode=2-AL-HMWPECN-15KV Phases= 3  Length=104.900000 units=m
New Line.263534401 Bus1=258908457.1.2.3 Bus2=263534403.1.2.3 LineCode=1/0-AL-HMWPECN-15KV Phases= 3  Length=1.520000 units=m
New Line.263534406 Bus1=263534403.1.2.3 Bus2=260762272.1.2.3 LineCode=1/0-AL-HMWPECN-15KV Phases= 3  Length=39.230000 units=m
New Line.263532960 Bus1=258903935.2 Bus2=263532962.2 LineCode=1/0-AL-HMWPECN-15KV Phases= 1  Length=1.520000 units=m
New Line.263532965 Bus1=263532962.2 Bus2=260761101.2 LineCode=1/0-AL-HMWPECN-15KV Phases= 1  Length=225.200000 units=m
New Line.263532969 Bus1=258903935.1 Bus2=263532971.1 LineCode=1/0-AL-HMWPECN-15KV Phases= 1  Length=1.520000 units=m
New Line.264256778 Bus1=260761333.1 Bus2=264256776.1 LineCode=1/0-AL-HMWPECN-15KV Phases= 1  Length=22.050000 units=m
New Line.263532942 Bus1=258903925.3 Bus2=263532944.3 LineCode=1/0-AL-TRXLPELCJ-15KV Phases= 1  Length=1.520000 units=m
New Line.263532947 Bus1=263532944.3 Bus2=260761116.3 LineCode=1/0-AL-TRXLPELCJ-15KV Phases= 1  Length=49.400000 units=m
New Line.264256756 Bus1=260761288.3 Bus2=264256758.3 LineCode=1/0-AL-HMWPECN-15KV Phases= 1  Length=1.520000 units=m
New Line.263904548 Bus1=258908479.2 Bus2=263904550.2 LineCode=1/0-AL-TRXLPELCJ-15KV Phases= 1  Length=1.530000 units=m
New Line.264256751 Bus1=260761188.1 Bus2=264256749.1 LineCode=1/0-AL-TRXLPELCJ-15KV Phases= 1  Length=23.890000 units=m
New Line.264256634 Bus1=263530711.1.2.3 Bus2=264256632.1.2.3 LineCode=350-AL-XLPEDWJ-15KV Phases= 3  Length=63.340000 units=m
New Line.263532920 Bus1=263532917.1 Bus2=260761178.1 LineCode=1/0-AL-TRXLPELCJ-15KV Phases= 1  Length=38.450000 units=m
New Line.264256630 Bus1=264256632.1.2.3 Bus2=260760193.1.2.3 LineCode=350-AL-XLPEDWJ-15KV Phases= 3  Length=1.520000 units=m
New Line.264256734 Bus1=264256731.2 Bus2=260761158.2 LineCode=2-AL-HMWPECN-15KV Phases= 1  Length=1.530000 units=m
New Line.264256733 Bus1=260761168.2 Bus2=264256731.2 LineCode=2-AL-HMWPECN-15KV Phases= 1  Length=45.050000 units=m
New Line.263532987 Bus1=258903945.1 Bus2=263532989.1 LineCode=1/0-AL-HMWPECN-15KV Phases= 1  Length=1.520000 units=m
New Line.633960134 Bus1=633960130.1.2.3 Bus2=633960111.1.2.3 LineCode=1/0-AL-TRXLPELCJ-25KV Phases= 3  Length=150.900000 units=m
New Line.264331251 Bus1=261180496.2 Bus2=264331249.2 LineCode=1/0-AL-TRXLPELCJ-15KV Phases= 1  Length=54.390000 units=m
New Line.260762260 Bus1=260762257.1 Bus2=260760210.1 LineCode=1/0-AL-HMWPECN-15KV Phases= 1  Length=62.360000 units=m
New Line.260761266 Bus1=260761263.3 Bus2=260761268.3 LineCode=1/0-AL-TRXLPELCJ-15KV Phases= 1  Length=22.590000 units=m
New Line.704839766 Bus1=704839763.1 Bus2=263533214.1 LineCode=1/0-AL-HMWPECN-15KV Phases= 1  Length=2.500000 units=m
New Line.704839761 Bus1=258904683.1 Bus2=704839763.1 LineCode=1/0-AL-HMWPECN-15KV Phases= 1  Length=1.520000 units=m
New Line.260761246 Bus1=260761243.3 Bus2=260761248.3 LineCode=1/0-AL-TRXLPELCJ-15KV Phases= 1  Length=21.960000 units=m
New Line.260761346 Bus1=260761343.1 Bus2=260761338.1 LineCode=1/0-AL-HMWPECN-15KV Phases= 1  Length=16.590000 units=m
New Line.260761221 Bus1=260761218.2 Bus2=260761223.2 LineCode=1/0-AL-TRXLPELCJ-15KV Phases= 1  Length=10.640000 units=m
New Line.260761166 Bus1=260761163.2 Bus2=260761168.2 LineCode=2-AL-HMWPECN-15KV Phases= 1  Length=12.000000 units=m
New Line.260761226 Bus1=260761223.2 Bus2=260761213.2 LineCode=1/0-AL-TRXLPELCJ-15KV Phases= 1  Length=25.610000 units=m
New Line.261245658 Bus1=261245655.2 Bus2=261245650.2 LineCode=1/0-AL-TRXLPELCJ-15KV Phases= 1  Length=40.810000 units=m
New Line.260761281 Bus1=260761278.3 Bus2=260761283.3 LineCode=1/0-AL-HMWPECN-15KV Phases= 1  Length=58.510000 units=m
New Line.260761201 Bus1=260761198.2 Bus2=260761203.2 LineCode=1/0-AL-TRXLPELCJ-15KV Phases= 1  Length=63.400000 units=m
New Line.261245653 Bus1=261245654.2 Bus2=261245655.2 LineCode=1/0-AL-TRXLPELCJ-15KV Phases= 1  Length=13.840000 units=m
New Line.260761206 Bus1=260761203.2 Bus2=260761208.2 LineCode=1/0-AL-TRXLPELCJ-15KV Phases= 1  Length=18.580000 units=m
New Line.260761301 Bus1=260761298.3 Bus2=260761288.3 LineCode=1/0-AL-HMWPECN-15KV Phases= 1  Length=90.570000 units=m
New Line.704839483 Bus1=704839480.3 Bus2=260761293.3 LineCode=1/0-AL-HMWPECN-15KV Phases= 1  Length=111.300000 units=m
New Line.260761181 Bus1=260761178.1 Bus2=260761183.1 LineCode=1/0-AL-TRXLPELCJ-15KV Phases= 1  Length=12.640000 units=m
New Line.260761186 Bus1=260761183.1 Bus2=260761188.1 LineCode=1/0-AL-TRXLPELCJ-15KV Phases= 1  Length=21.670000 units=m
New Line.260761104 Bus1=260761101.2 Bus2=260761106.2 LineCode=1/0-AL-HMWPECN-15KV Phases= 1  Length=63.250000 units=m
New Line.261302054 Bus1=261302051.2 Bus2=261302045.2 LineCode=1/0-AL-TRXLPELCJ-15KV Phases= 1  Length=61.650000 units=m
New Line.264308690 Bus1=260761258.3 Bus2=264308692.3 LineCode=1/0-AL-TRXLPELCJ-15KV Phases= 1  Length=1.530000 units=m
New Line.264308694 Bus1=260761253.3 Bus2=264308692.3 LineCode=1/0-AL-TRXLPELCJ-15KV Phases= 1  Length=30.140000 units=m
New Line.263533077 Bus1=258904350.3 Bus2=263533079.3 LineCode=1/0-AL-HMWPECN-15KV Phases= 1  Length=1.530000 units=m
New Line.264308712 Bus1=260761106.2 Bus2=264308710.2 LineCode=1/0-AL-HMWPECN-15KV Phases= 1  Length=48.860000 units=m
New Line.617632322 Bus1=617632319.2 Bus2=260761198.2 LineCode=1/0-AL-TRXLPELCJ-15KV Phases= 1  Length=15.120000 units=m
New Line.263533230 Bus1=258904747.1.2.3 Bus2=263533232.1.2.3 LineCode=1/0-AL-HMWPECN-15KV Phases= 3  Length=1.530000 units=m
New Line.263530718 Bus1=258896556.1.2.3 Bus2=263530720.1.2.3 LineCode=350-AL-XLPEDWJ-15KV Phases= 3  Length=1.530000 units=m
New Line.263533235 Bus1=263533232.1.2.3 Bus2=260762245.1.2.3 LineCode=1/0-AL-HMWPECN-15KV Phases= 3  Length=25.270000 units=m
New Line.263533050 Bus1=258904206.2 Bus2=263533052.2 LineCode=2-AL-HMWPECN-15KV Phases= 1  Length=1.520000 units=m
New Line.263533055 Bus1=263533052.2 Bus2=260761163.2 LineCode=2-AL-HMWPECN-15KV Phases= 1  Length=29.440000 units=m
New Line.263533217 Bus1=263533214.1 Bus2=260761328.1 LineCode=1/0-AL-HMWPECN-15KV Phases= 1  Length=26.220000 units=m
New Line.263533131 Bus1=258904488.1 Bus2=263533133.1 LineCode=1/0-AL-TRXLPELCJ-15KV Phases= 1  Length=1.530000 units=m
New Line.263533136 Bus1=263533133.1 Bus2=260761233.1 LineCode=1/0-AL-TRXLPELCJ-15KV Phases= 1  Length=22.020000 units=m
New Line.264281558 Bus1=260760205.1 Bus2=264281556.1 LineCode=1/0-AL-HMWPECN-15KV Phases= 1  Length=118.400000 units=m
New Line.263533095 Bus1=258904379.1.2.3 Bus2=263533097.1.2.3 LineCode=2-AL-HMWPECN-15KV Phases= 3  Length=1.520000 units=m
New Line.263533113 Bus1=258904471.3 Bus2=263533115.3 LineCode=1/0-AL-TRXLPELCJ-15KV Phases= 1  Length=1.530000 units=m
New Line.263533190 Bus1=263533187.1 Bus2=260761343.1 LineCode=1/0-AL-HMWPECN-15KV Phases= 1  Length=84.740000 units=m
New Line.263533194 Bus1=258904693.2 Bus2=263533196.2 LineCode=1/0-AL-HMWPECN-15KV Phases= 1  Length=1.520000 units=m
New Line.263533118 Bus1=263533115.3 Bus2=260761263.3 LineCode=1/0-AL-TRXLPELCJ-15KV Phases= 1  Length=19.470000 units=m
New Line.263533199 Bus1=263533196.2 Bus2=260761318.2 LineCode=1/0-AL-HMWPECN-15KV Phases= 1  Length=76.140000 units=m
New Line.263857514 Bus1=263857511.3 Bus2=261131003.3 LineCode=1/0-AL-TRXLPELCJ-15KV Phases= 1  Length=156.400000 units=m
New Line.264256769 Bus1=260761318.2 Bus2=264256767.2 LineCode=1/0-AL-HMWPECN-15KV Phases= 1  Length=36.300000 units=m
New Line.264256760 Bus1=260761283.3 Bus2=264256758.3 LineCode=1/0-AL-HMWPECN-15KV Phases= 1  Length=73.280000 units=m
New Line.263532974 Bus1=263532971.1 Bus2=260761091.1 LineCode=1/0-AL-HMWPECN-15KV Phases= 1  Length=33.410000 units=m
New Line.264256742 Bus1=260761208.2 Bus2=264256740.2 LineCode=1/0-AL-TRXLPELCJ-15KV Phases= 1  Length=17.740000 units=m
New Line.263534338 Bus1=258908056.1.2.3 Bus2=263534340.1.2.3 LineCode=2-AL-HMWPECN-15KV Phases= 3  Length=1.520000 units=m
New Line.263904553 Bus1=263904550.2 Bus2=261180495.2 LineCode=1/0-AL-TRXLPELCJ-15KV Phases= 1  Length=41.630000 units=m
New Line.264256729 Bus1=260761158.2 Bus2=264256731.2 LineCode=2-AL-HMWPECN-15KV Phases= 1  Length=1.530000 units=m
New Line.264256724 Bus1=260761126.3 Bus2=264256722.3 LineCode=1/0-AL-TRXLPELCJ-15KV Phases= 1  Length=108.600000 units=m
New Line.263534392 Bus1=258908452.1.2.3 Bus2=263534394.1.2.3 LineCode=1/0-AL-HMWPECN-15KV Phases= 3  Length=1.530000 units=m
New Line.263534310 Bus1=258896603.1.2.3 Bus2=263534312.1.2.3 LineCode=1/0-AL-HMWPECN-15KV Phases= 3  Length=1.540000 units=m
New Line.264256720 Bus1=260761121.3 Bus2=264256722.3 LineCode=1/0-AL-TRXLPELCJ-15KV Phases= 1  Length=1.530000 units=m
New Line.263534397 Bus1=263534394.1.2.3 Bus2=260762277.1.2.3 LineCode=1/0-AL-HMWPECN-15KV Phases= 3  Length=71.690000 units=m
New Line.263534315 Bus1=263534312.1.2.3 Bus2=260762252.1.2.3 LineCode=1/0-AL-HMWPECN-15KV Phases= 3  Length=22.880000 units=m
New Line.263961998 Bus1=258908484.2 Bus2=263962000.2 LineCode=1/0-AL-TRXLPELCJ-15KV Phases= 1  Length=1.530000 units=m
New Line.263532933 Bus1=259562756.3 Bus2=263532935.3 LineCode=1/0-AL-TRXLPELCJ-15KV Phases= 1  Length=1.520000 units=m
New Line.263532938 Bus1=263532935.3 Bus2=260761126.3 LineCode=1/0-AL-TRXLPELCJ-15KV Phases= 1  Length=52.100000 units=m
New Line.263879215 Bus1=263879212.3 Bus2=260984962.3 LineCode=1/0-AL-TRXLPELCJ-15KV Phases= 1  Length=16.650000 units=m
New Line.263879210 Bus1=258908462.3 Bus2=263879212.3 LineCode=1/0-AL-TRXLPELCJ-15KV Phases= 1  Length=1.530000 units=m
New Line.263532992 Bus1=263532989.1 Bus2=260761081.1 LineCode=1/0-AL-HMWPECN-15KV Phases= 1  Length=85.210000 units=m
New Line.263532996 Bus1=258903945.2 Bus2=263532998.2 LineCode=1/0-AL-HMWPECN-15KV Phases= 1  Length=1.520000 units=m
New Line.263532915 Bus1=258903915.1 Bus2=263532917.1 LineCode=1/0-AL-TRXLPELCJ-15KV Phases= 1  Length=1.530000 units=m
New Line.633960128 Bus1=633960094.1.2.3 Bus2=633960130.1.2.3 LineCode=1/0-AL-TRXLPELCJ-25KV Phases= 3  Length=1.540000 units=m
New Line.261180494 Bus1=261180495.2 Bus2=261180496.2 LineCode=1/0-AL-TRXLPELCJ-15KV Phases= 1  Length=63.450000 units=m
New Line.630011497 Bus1=630011493.1 Bus2=630011474.1 LineCode=1/0-AL-TRXLPELCJ-25KV Phases= 1  Length=59.490000 units=m
New Line.630011491 Bus1=630011445.1 Bus2=630011493.1 LineCode=1/0-AL-TRXLPELCJ-25KV Phases= 1  Length=1.530000 units=m
New Line.260761271 Bus1=260761268.3 Bus2=260761258.3 LineCode=1/0-AL-TRXLPELCJ-15KV Phases= 1  Length=21.010000 units=m
New Line.260761276 Bus1=258903848.3 Bus2=260761278.3 LineCode=1/0-AL-HMWPECN-15KV Phases= 1  Length=53.390000 units=m
New Line.260761251 Bus1=260761248.3 Bus2=260761253.3 LineCode=1/0-AL-TRXLPELCJ-15KV Phases= 1  Length=22.460000 units=m
New Line.260761074 Bus1=260761071.2 Bus2=260761076.2 LineCode=1/0-AL-HMWPECN-15KV Phases= 1  Length=126.000000 units=m
New Line.704839478 Bus1=258903833.3 Bus2=704839480.3 LineCode=1/0-AL-HMWPECN-15KV Phases= 1  Length=1.530000 units=m
New Line.260761236 Bus1=260761233.1 Bus2=260761193.1 LineCode=1/0-AL-TRXLPELCJ-15KV Phases= 1  Length=21.920000 units=m
