03_OpenDSS_Circuits/Commonwealth_Circuit_Opendss/COMMONWEALTH_RET_01311205_VLN.Txt

SYMMETRICAL COMPONENT VOLTAGES BY BUS (for 3-phase buses)

Bus                            Mag:   V1 (kV)    p.u.     V2 (kV)   %V2/V1    V0 (kV)    %V0/V1

commonwealth_ret_01311205         7.379      1.025  1.112E-005  0.0001507 1.035E-005 0.0001403
commonwealth_ret_01311205_reg     7.379      1.025  1.201E-005  0.0001627 1.123E-005 0.0001523
260762272                         7.379      1.025  1.624E-005  0.0002201 3.299E-005 0.0004471
264256884                         7.379      1.025  1.624E-005  0.0002201 3.299E-005 0.0004471
263962000                         7.379      1.025          0          0         0         0
261302041                         7.379      1.025          0          0         0         0
260761328                         7.379      1.025          0          0         0         0
260761333                         7.379      1.025          0          0         0         0
260762277                         7.379      1.025  1.624E-005  0.0002201 3.299E-005 0.0004471
260761148                         7.379      1.025          0          0         0         0
260761153                         7.379      1.025          0          0         0         0
260761158                         7.379      1.025          0          0         0         0
260761293                         7.379      1.025          0          0         0         0
260761298                         7.379      1.025          0          0         0         0
260761308                         7.379      1.025          0          0         0         0
260761313                         7.379      1.025          0          0         0         0
260760188                         7.379      1.025  2.595E-005  0.0003517 6.05E-005 0.0008198
260760193                         7.379      1.025  2.595E-005  0.0003517 6.05E-005 0.0008198
261302051                         7.379      1.025          0          0         0         0
263530720                         7.379      1.025  2.595E-005  0.0003517 6.05E-005 0.0008198
260761091                         7.379      1.025          0          0         0         0
260761086                         7.379      1.025          0          0         0         0
261302045                         7.379      1.025          0          0         0         0
261245654                         7.379      1.025          0          0         0         0
258896517                         7.379      1.025  2.568E-005  0.0003481 5.866E-005  0.000795
263530684                         7.379      1.025          0          0         0         0
260762257                         7.379      1.025          0          0         0         0
260761116                         7.379      1.025          0          0         0         0
260761121                         7.379      1.025          0          0         0         0
260761081                         7.379      1.025          0          0         0         0
264308701                         7.379      1.025          0          0         0         0
617632353                         7.379      1.025          0          0         0         0
260761218                         7.379      1.025          0          0         0         0
258896544                         7.379      1.025  2.595E-005  0.0003517 6.049E-005 0.0008197
263530702                         7.379      1.025          0          0         0         0
258908474                         7.379      1.025  1.245E-005  0.0001687 1.872E-005 0.0002537
263997296                         7.379      1.025          0          0         0         0
258904493                         7.379      1.025  3.444E-005  0.0004667 8.838E-005  0.001198
260760205                         7.379      1.025          0          0         0         0
261282305                         7.379      1.025          0          0         0         0
258896551                         7.379      1.025  2.595E-005  0.0003517 6.049E-005 0.0008198
263530711                         7.379      1.025  2.595E-005  0.0003517 6.049E-005 0.0008198
258904693                         7.379      1.025  3.099E-005  0.0004199 7.988E-005  0.001083
263533205                         7.379      1.025          0          0         0         0
258904498                         7.379      1.025  3.449E-005  0.0004673 8.849E-005  0.001199
617632319                         7.379      1.025          0          0         0         0
258904478                         7.379      1.025  3.428E-005  0.0004646 8.806E-005  0.001193
263533124                         7.379      1.025          0          0         0         0
260761243                         7.379      1.025          0          0         0         0
263533079                         7.379      1.025          0          0         0         0
263532998                         7.379      1.025          0          0         0         0
260761071                         7.379      1.025          0          0         0         0
263533097                         7.379      1.025  3.544E-005  0.0004802 9.028E-005  0.001223
260761141                         7.379      1.025  3.544E-005  0.0004802 9.028E-005  0.001223
258904391                         7.379      1.025  3.544E-005  0.0004803 9.029E-005  0.001224
263533106                         7.379      1.025  3.544E-005  0.0004803 9.029E-005  0.001224
258904666                         7.379      1.025  3.096E-005  0.0004196 7.984E-005  0.001082
263533187                         7.379      1.025          0          0         0         0
260761136                         7.379      1.025  3.544E-005  0.0004803 9.029E-005  0.001224
259365163                         7.379      1.025          0          0         0         0
263857511                         7.379      1.025          0          0         0         0
263534340                         7.379      1.025  2.676E-005  0.0003627 5.69E-005 0.0007712
260762267                         7.379      1.025  2.676E-005  0.0003627 5.69E-005 0.0007712
258908457                         7.379      1.025  1.624E-005  0.0002201 3.299E-005 0.0004471
263534403                         7.379      1.025  1.624E-005  0.0002201 3.299E-005 0.0004471
258903935                         7.379      1.025  3.498E-005  0.0004741 9.101E-005  0.001233
263532962                         7.379      1.025          0          0         0         0
260761101                         7.379      1.025          0          0         0         0
263532971                         7.379      1.025          0          0         0         0
264256776                         7.379      1.025          0          0         0         0
258903925                         7.379      1.025  3.49E-005  0.0004729 9.059E-005  0.001228
263532944                         7.379      1.025          0          0         0         0
260761288                         7.379      1.025          0          0         0         0
264256758                         7.379      1.025          0          0         0         0
258908479                         7.379      1.025  1.25E-005  0.0001694 1.881E-005 0.0002549
263904550                         7.379      1.025          0          0         0         0
260761188                         7.379      1.025          0          0         0         0
264256749                         7.379      1.025          0          0         0         0
264256632                         7.379      1.025  2.595E-005  0.0003517 6.049E-005 0.0008198
263532917                         7.379      1.025          0          0         0         0
260761178                         7.379      1.025          0          0         0         0
264256731                         7.379      1.025          0          0         0         0
260761168                         7.379      1.025          0          0         0         0
258903945                         7.379      1.025  3.502E-005  0.0004746 9.117E-005  0.001235
263532989                         7.379      1.025          0          0         0         0
633960130                         7.379      1.025  2.636E-005  0.0003572 6.321E-005 0.0008566
633960111                         7.379      1.025  2.636E-005  0.0003572 6.321E-005 0.0008566
261180496                         7.379      1.025          0          0         0         0
264331249                         7.379      1.025          0          0         0         0
260760210                         7.379      1.025          0          0         0         0
260761263                         7.379      1.025          0          0         0         0
260761268                         7.379      1.025          0          0         0         0
704839763                         7.379      1.025          0          0         0         0
263533214                         7.379      1.025          0          0         0         0
258904683                         7.379      1.025          0          0         0         0
260761248                         7.379      1.025          0          0         0         0
260761343                         7.379      1.025          0          0         0         0
260761338                         7.379      1.025          0          0         0         0
260761223                         7.379      1.025          0          0         0         0
260761163                         7.379      1.025          0          0         0         0
260761213                         7.379      1.025          0          0         0         0
261245655                         7.379      1.025          0          0         0         0
261245650                         7.379      1.025          0          0         0         0
260761278                         7.379      1.025          0          0         0         0
260761283                         7.379      1.025          0          0         0         0
260761198                         7.379      1.025          0          0         0         0
260761203                         7.379      1.025          0          0         0         0
260761208                         7.379      1.025          0          0         0         0
704839480                         7.379      1.025          0          0         0         0
260761183                         7.379      1.025          0          0         0         0
260761106                         7.379      1.025          0          0         0         0
260761258                         7.379      1.025          0          0         0         0
264308692                         7.379      1.025          0          0         0         0
260761253                         7.379      1.025          0          0         0         0
258904350                         7.379      1.025  3.542E-005    0.00048 9.023E-005  0.001223
264308710                         7.379      1.025          0          0         0         0
258904747                         7.379      1.025  3.039E-005  0.0004118 7.804E-005  0.001058
263533232                         7.379      1.025  3.039E-005  0.0004118 7.804E-005  0.001058
258896556                         7.379      1.025  2.595E-005  0.0003517 6.05E-005 0.0008198
260762245                         7.379      1.025  3.039E-005  0.0004118 7.804E-005  0.001058
258904206                         7.379      1.025  3.505E-005   0.000475 8.982E-005  0.001217
263533052                         7.379      1.025          0          0         0         0
258904488                         7.379      1.025  3.44E-005  0.0004662 8.831E-005  0.001197
263533133                         7.379      1.025          0          0         0         0
260761233                         7.379      1.025          0          0         0         0
264281556                         7.379      1.025          0          0         0         0
258904379                         7.379      1.025  3.544E-005  0.0004802 9.028E-005  0.001223
258904471                         7.379      1.025  3.426E-005  0.0004643 8.802E-005  0.001193
263533115                         7.379      1.025          0          0         0         0
263533196                         7.379      1.025          0          0         0         0
260761318                         7.379      1.025          0          0         0         0
261131003                         7.379      1.025          0          0         0         0
264256767                         7.379      1.025          0          0         0         0
264256740                         7.379      1.025          0          0         0         0
258908056                         7.379      1.025  2.676E-005  0.0003627 5.69E-005 0.0007712
261180495                         7.379      1.025          0          0         0         0
260761126                         7.379      1.025          0          0         0         0
264256722                         7.379      1.025          0          0         0         0
258908452                         7.379      1.025  1.624E-005  0.0002201 3.299E-005 0.0004471
263534394                         7.379      1.025  1.624E-005  0.0002201 3.299E-005 0.0004471
258896603                         7.379      1.025  2.708E-005  0.0003669  6.8E-005 0.0009215
263534312                         7.379      1.025  2.708E-005  0.0003669  6.8E-005 0.0009215
260762252                         7.379      1.025  2.708E-005  0.0003669  6.8E-005 0.0009215
258908484                         7.379      1.025  1.252E-005  0.0001697 1.884E-005 0.0002554
259562756                         7.379      1.025          0          0         0         0
263532935                         7.379      1.025          0          0         0         0
263879212                         7.379      1.025          0          0         0         0
260984962                         7.379      1.025          0          0         0         0
258908462                         7.379      1.025  1.232E-005  0.0001669 1.854E-005 0.0002512
258903915                         7.379      1.025  3.47E-005  0.0004702 8.946E-005  0.001212
633960094                         7.379      1.025  2.636E-005  0.0003572 6.321E-005 0.0008566
630011493                         7.379      1.025          0          0         0         0
630011474                         7.379      1.025          0          0         0         0
630011445                         7.379      1.025          0          0         0         0
258903848                         7.379      1.025          0          0         0         0
260761076                         7.379      1.025          0          0         0         0
258903833                         7.379      1.025          0          0         0         0
260761193                         7.379      1.025          0          0         0         0
258908270                         7.379      1.025          0          0         0         0
258908275                         7.379      1.025          0          0         0         0
258904308                         7.379      1.025          0          0         0         0
258904313                         7.379      1.025          0          0         0         0
258908280                         7.379      1.025          0          0         0         0
699603823                         7.379      1.025  3.137E-005  0.0004251 8.071E-005  0.001094
258903826                         7.379      1.025  3.148E-005  0.0004265 8.095E-005  0.001097
258904396                         7.379      1.025          0          0         0         0
258904401                         7.379      1.025          0          0         0         0
258904125                         7.379      1.025  3.559E-005  0.0004823 9.191E-005  0.001246
258904132                         7.379      1.025  3.558E-005  0.0004821 9.189E-005  0.001245
258903821                         7.379      1.025  3.125E-005  0.0004235 8.047E-005  0.001091
263642063                         7.379      1.025  1.625E-005  0.0002202 3.298E-005 0.0004469
258896333                         7.379      1.025  1.624E-005  0.0002201 3.298E-005  0.000447
258904137                         7.379      1.025  3.556E-005  0.0004819 9.187E-005  0.001245
258908370                         7.379      1.025          0          0         0         0
258908375                         7.379      1.025          0          0         0         0
258908430                         7.379      1.025          0          0         0         0
258908435                         7.379      1.025          0          0         0         0
258904090                         7.379      1.025          0          0         0         0
258904095                         7.379      1.025          0          0         0         0
258904010                         7.379      1.025          0          0         0         0
258904015                         7.379      1.025          0          0         0         0
258896328                         7.379      1.025  1.625E-005  0.0002202 3.298E-005 0.0004469
699645825                         7.379      1.025          0          0         0         0
258904651                         7.379      1.025          0          0         0         0
263530738                         7.379      1.025          0          0         0         0
258907891                         7.379      1.025          0          0         0         0
258908380                         7.379      1.025          0          0         0         0
258908440                         7.379      1.025  1.624E-005  0.0002201 3.298E-005  0.000447
258904646                         7.379      1.025          0          0         0         0
258904020                         7.379      1.025          0          0         0         0
258896640                         7.379      1.025  2.798E-005  0.0003792 7.275E-005 0.0009859
263530747                         7.379      1.025  2.798E-005  0.0003792 7.275E-005  0.000986
258904100                         7.379      1.025          0          0         0         0
699645905                         7.379      1.025          0          0         0         0
258904528                         7.379      1.025          0          0         0         0
258903930                         7.379      1.025  3.495E-005  0.0004737 9.086E-005  0.001231
699645894                         7.379      1.025          0          0         0         0
263532863                         7.379      1.025  3.095E-005  0.0004194 7.982E-005  0.001082
699603805                         7.379      1.025  3.095E-005  0.0004194 7.982E-005  0.001082
258904110                         7.379      1.025          0          0         0         0
258904115                         7.379      1.025          0          0         0         0
699603882                         7.379      1.025  3.268E-005  0.0004428 8.374E-005  0.001135
...
