03_OpenDSS_Circuits/Commonwealth_Circuit_Opendss/COMMONWEALTH_RET_01311205_VLN_Node.Txt

LINE-GROUND and LINE-LINE VOLTAGES BY BUS & NODE

Bus                           Node    VLN (kV)   Angle      pu     Base kV    Node-Node   VLL (kV)  Angle      pu

COMMONWEALTH_RET_01311205 ... 1       7.3081 /_   -1.7    1.0151    12.470        1-2     12.664 /_   28.3    1.0155
   -                          2       7.3082 /_ -121.8    1.0151    12.470        2-3     12.648 /_  -91.6    1.0142
   -                          3       7.3214 /_  118.6    1.0169    12.470        3-1     12.686 /_  148.4    1.0173
COMMONWEALTH_RET_01311205_REG 1       7.3947 /_   -1.8    1.0271    12.470        1-2     12.814 /_   28.1    1.0276
   -                          2        7.395 /_ -121.9    1.0271    12.470        2-3     12.757 /_  -91.8     1.023
   -                          3       7.3635 /_  118.5    1.0228    12.470        3-1     12.799 /_  148.4    1.0264
260762272 ................... 1       7.2981 /_   -2.8    1.0137    12.470        1-2     12.664 /_   27.4    1.0156
   -                          2       7.3355 /_ -122.6    1.0189    12.470        2-3     12.657 /_  -92.5     1.015
   -                          3       7.3119 /_  117.8    1.0156    12.470        3-1     12.689 /_  147.5    1.0176
264256884 ................... 1       7.2981 /_   -2.8    1.0137    12.470        1-2     12.664 /_   27.4    1.0156
   -                          2       7.3355 /_ -122.6    1.0189    12.470        2-3     12.657 /_  -92.5     1.015
   -                          3       7.3119 /_  117.8    1.0156    12.470        3-1     12.689 /_  147.5    1.0176
263962000 ................... 2       7.3689 /_ -122.3    1.0235    12.470
261302041 ................... 2       7.3688 /_ -122.3    1.0235    12.470
260761328 ................... 1       7.0644 /_   -5.1   0.98123    12.470
260761333 ................... 1       7.0644 /_   -5.1   0.98123    12.470
260762277 ................... 1       7.2981 /_   -2.8    1.0137    12.470        1-2     12.664 /_   27.4    1.0156
   -                          2       7.3355 /_ -122.6    1.0189    12.470        2-3     12.657 /_  -92.5     1.015
   -                          3       7.3119 /_  117.8    1.0156    12.470        3-1     12.689 /_  147.5    1.0176
260761148 ................... 3       7.1859 /_  116.1   0.99811    12.470
260761153 ................... 3       7.1859 /_  116.1    0.9981    12.470
260761158 ................... 2        7.191 /_ -124.3   0.99881    12.470        2-3     7.1859 /_  116.1   0.57626
   -                          3       7.1859 /_  116.1    0.9981    12.470
260761293 ................... 3       7.1947 /_  116.5   0.99932    12.470
260761298 ................... 3       7.1946 /_  116.5   0.99931    12.470
260761308 ................... 2       7.2499 /_ -124.1     1.007    12.470
260761313 ................... 2       7.2499 /_ -124.1     1.007    12.470
260760188 ................... 1       7.1725 /_   -4.1   0.99624    12.470        1-2      12.47 /_   26.4         1
   -                          2       7.2715 /_ -123.5      1.01    12.470        2-3     12.537 /_  -93.3    1.0054
   -                          3       7.2409 /_  117.0    1.0057    12.470        3-1     12.551 /_  146.3    1.0065
260760193 ................... 1       7.1725 /_   -4.1   0.99624    12.470        1-2      12.47 /_   26.4         1
   -                          2       7.2715 /_ -123.5      1.01    12.470        2-3     12.537 /_  -93.3    1.0054
   -                          3       7.2409 /_  117.0    1.0057    12.470        3-1     12.551 /_  146.3    1.0065
261302051 ................... 2       7.3687 /_ -122.3    1.0235    12.470
263530720 ................... 1       7.1725 /_   -4.1   0.99625    12.470        1-2      12.47 /_   26.4         1
   -                          2       7.2716 /_ -123.5      1.01    12.470        2-3     12.537 /_  -93.3    1.0054
   -                          3       7.2409 /_  117.0    1.0057    12.470        3-1     12.551 /_  146.3    1.0065
260761091 ................... 1       7.0925 /_   -4.9   0.98513    12.470
260761086 ................... 1       7.0925 /_   -4.9   0.98513    12.470
261302045 ................... 2       7.3685 /_ -122.3    1.0235    12.470
261245654 ................... 2       7.3683 /_ -122.3    1.0234    12.470
258896517 ................... 1       7.1824 /_   -4.0   0.99761    12.470        1-2     12.483 /_   26.5     1.001
   -                          2       7.2754 /_ -123.4    1.0105    12.470        2-3     12.546 /_  -93.3    1.0061
   -                          3       7.2445 /_  117.0    1.0062    12.470        3-1      12.56 /_  146.4    1.0072
263530684 ................... 1       7.1824 /_   -4.0   0.99761    12.470
260762257 ................... 1       7.1823 /_   -4.0   0.99761    12.470
260761116 ................... 3       7.1837 /_  116.1    0.9978    12.470
260761121 ................... 3       7.1837 /_  116.1    0.9978    12.470
260761081 ................... 1       7.0927 /_   -4.9   0.98515    12.470
264308701 ................... 1       7.0927 /_   -4.9   0.98515    12.470
617632353 ................... 2       7.1778 /_ -124.3   0.99698    12.470
260761218 ................... 2       7.1778 /_ -124.3   0.99698    12.470
258896544 ................... 1       7.1727 /_   -4.1   0.99627    12.470        1-2      12.47 /_   26.4         1
   -                          2        7.272 /_ -123.5    1.0101    12.470        2-3     12.538 /_  -93.3    1.0054
   -                          3       7.2411 /_  117.0    1.0058    12.470        3-1     12.552 /_  146.3    1.0065
263530702 ................... 1       7.1727 /_   -4.1   0.99627    12.470
258908474 ................... 1       7.3627 /_   -2.1    1.0227    12.470        1-2      12.77 /_   27.8     1.024
   -                          2       7.3692 /_ -122.3    1.0236    12.470        2-3      12.72 /_  -92.0      1.02
   -                          3       7.3553 /_  118.2    1.0216    12.470        3-1     12.767 /_  148.1    1.0238
263997296 ................... 3       7.3553 /_  118.2    1.0216    12.470
258904493 ................... 1       7.0902 /_   -4.9   0.98481    12.470        1-2     12.321 /_   25.6   0.98808
   -                          2       7.1778 /_ -124.3   0.99698    12.470        2-3     12.412 /_  -94.1   0.99533
   -                          3       7.1845 /_  116.1   0.99791    12.470        3-1     12.423 /_  145.4   0.99624
260760205 ................... 1       7.1727 /_   -4.1   0.99627    12.470
261282305 ................... 3       7.3553 /_  118.2    1.0216    12.470
258896551 ................... 1       7.1726 /_   -4.1   0.99626    12.470        1-2      12.47 /_   26.4         1
   -                          2       7.2717 /_ -123.5      1.01    12.470        2-3     12.538 /_  -93.3    1.0054
   -                          3        7.241 /_  117.0    1.0058    12.470        3-1     12.551 /_  146.3    1.0065
263530711 ................... 1       7.1726 /_   -4.1   0.99626    12.470        1-2      12.47 /_   26.4         1
   -                          2       7.2717 /_ -123.5      1.01    12.470        2-3     12.538 /_  -93.3    1.0054
   -                          3        7.241 /_  117.0    1.0058    12.470        3-1     12.551 /_  146.3    1.0065
258904693 ................... 1        7.069 /_   -5.1   0.98187    12.470        1-2     12.334 /_   25.8   0.98909
   -                          2       7.2499 /_ -124.1     1.007    12.470        2-3     12.465 /_  -93.8   0.99961
   -                          3       7.1952 /_  116.6    0.9994    12.470        3-1     12.462 /_  145.5   0.99936
263533205 ................... 2       7.2499 /_ -124.1     1.007    12.470
258904498 ................... 1       7.0899 /_   -4.9   0.98477    12.470        1-2     12.319 /_   25.6    0.9879
   -                          2        7.173 /_ -124.4   0.99631    12.470        2-3     12.407 /_  -94.1   0.99496
   -                          3        7.185 /_  116.1   0.99797    12.470        3-1     12.422 /_  145.4   0.99614
617632319 ................... 2       7.1729 /_ -124.4    0.9963    12.470
258904478 ................... 1         7.09 /_   -4.9   0.98478    12.470        1-2     12.325 /_   25.6   0.98841
   -                          2       7.1868 /_ -124.3   0.99822    12.470        2-3     12.421 /_  -94.1   0.99604
   -                          3       7.1858 /_  116.1   0.99809    12.470        3-1     12.427 /_  145.4   0.99658
263533124 ................... 3       7.1858 /_  116.1   0.99809    12.470
260761243 ................... 3       7.1858 /_  116.1   0.99809    12.470
263533079 ................... 3        7.186 /_  116.1   0.99812    12.470
263532998 ................... 2       7.1873 /_ -124.3   0.99829    12.470
260761071 ................... 2        7.187 /_ -124.3   0.99826    12.470
263533097 ................... 1       7.0867 /_   -4.9   0.98433    12.470        1-2     12.323 /_   25.6    0.9882
   -                          2       7.1893 /_ -124.3   0.99857    12.470        2-3     12.423 /_  -94.1   0.99625
   -                          3        7.186 /_  116.1   0.99811    12.470        3-1     12.426 /_  145.4    0.9965
260761141 ................... 1       7.0867 /_   -4.9   0.98433    12.470        1-2     12.323 /_   25.6    0.9882
   -                          2       7.1893 /_ -124.3   0.99857    12.470        2-3     12.423 /_  -94.1   0.99625
   -                          3        7.186 /_  116.1   0.99811    12.470        3-1     12.426 /_  145.4    0.9965
258904391 ................... 1       7.0867 /_   -4.9   0.98433    12.470        1-2     12.323 /_   25.6   0.98819
   -                          2       7.1892 /_ -124.3   0.99856    12.470        2-3     12.423 /_  -94.1   0.99625
   -                          3        7.186 /_  116.1   0.99811    12.470        3-1     12.426 /_  145.4    0.9965
263533106 ................... 1       7.0867 /_   -4.9   0.98433    12.470        1-2     12.323 /_   25.6   0.98819
   -                          2       7.1892 /_ -124.3   0.99856    12.470        2-3     12.423 /_  -94.1   0.99625
   -                          3        7.186 /_  116.1   0.99811    12.470        3-1     12.426 /_  145.4    0.9965
258904666 ................... 1       7.0767 /_   -5.1   0.98293    12.470        1-2     12.341 /_   25.8   0.98965
   -                          2       7.2473 /_ -124.1    1.0066    12.470        2-3     12.465 /_  -93.8   0.99963
   -                          3       7.1963 /_  116.6   0.99955    12.470        3-1     12.466 /_  145.5   0.99964
263533187 ................... 1       7.0767 /_   -5.1   0.98293    12.470
260761136 ................... 1       7.0867 /_   -4.9   0.98433    12.470        1-2     12.323 /_   25.6   0.98819
   -                          2       7.1892 /_ -124.3   0.99856    12.470        2-3     12.423 /_  -94.1   0.99625
   -                          3        7.186 /_  116.1   0.99811    12.470        3-1     12.426 /_  145.4    0.9965
259365163 ................... 3         7.21 /_  116.7    1.0014    12.470
263857511 ................... 3         7.21 /_  116.7    1.0014    12.470
263534340 ................... 1        7.161 /_   -4.0   0.99464    12.470        1-2     12.442 /_   26.6   0.99774
   -                          2       7.2612 /_ -123.2    1.0086    12.470        2-3     12.491 /_  -93.3    1.0017
   -                          3       7.1755 /_  117.0   0.99665    12.470        3-1     12.474 /_  146.5    1.0003
260762267 ................... 1        7.161 /_   -4.0   0.99464    12.470        1-2     12.442 /_   26.6   0.99774
   -                          2       7.2612 /_ -123.2    1.0086    12.470        2-3     12.491 /_  -93.3    1.0017
   -                          3       7.1755 /_  117.0   0.99665    12.470        3-1     12.474 /_  146.5    1.0003
258908457 ................... 1       7.2981 /_   -2.8    1.0137    12.470        1-2     12.664 /_   27.4    1.0156
   -                          2       7.3355 /_ -122.6    1.0189    12.470        2-3     12.657 /_  -92.5     1.015
   -                          3       7.3119 /_  117.8    1.0156    12.470        3-1     12.689 /_  147.5    1.0176
263534403 ................... 1       7.2981 /_   -2.8    1.0137    12.470        1-2     12.664 /_   27.4    1.0156
   -                          2       7.3355 /_ -122.6    1.0189    12.470        2-3     12.657 /_  -92.5     1.015
   -                          3       7.3119 /_  117.8    1.0156    12.470        3-1     12.689 /_  147.5    1.0176
258903935 ................... 1       7.0925 /_   -4.9   0.98513    12.470        1-2     12.326 /_   25.6   0.98847
   -                          2       7.1878 /_ -124.3   0.99836    12.470        2-3     12.425 /_  -94.1   0.99635
   -                          3       7.1828 /_  116.1   0.99767    12.470        3-1     12.424 /_  145.4   0.99629
263532962 ................... 2       7.1878 /_ -124.3   0.99836    12.470
260761101 ................... 2       7.1872 /_ -124.3   0.99828    12.470
263532971 ................... 1       7.0925 /_   -4.9   0.98513    12.470
264256776 ................... 1       7.0644 /_   -5.1   0.98123    12.470
258903925 ................... 1       7.0918 /_   -4.9   0.98503    12.470        1-2     12.327 /_   25.6    0.9885
   -                          2        7.189 /_ -124.3   0.99853    12.470        2-3     12.425 /_  -94.1   0.99641
   -                          3       7.1838 /_  116.1   0.99781    12.470        3-1     12.425 /_  145.4    0.9964
263532944 ................... 3       7.1838 /_  116.1   0.99781    12.470
260761288 ................... 3       7.1946 /_  116.5   0.99931    12.470
264256758 ................... 3       7.1932 /_  116.4   0.99912    12.470
258908479 ................... 1       7.3626 /_   -2.1    1.0226    12.470        1-2      12.77 /_   27.8     1.024
   -                          2        7.369 /_ -122.3    1.0235    12.470        2-3     12.719 /_  -92.0      1.02
   -                          3       7.3554 /_  118.2    1.0217    12.470        3-1     12.767 /_  148.1    1.0238
263904550 ................... 2        7.369 /_ -122.3    1.0235    12.470
260761188 ................... 1         7.09 /_   -4.9   0.98478    12.470
264256749 ................... 1         7.09 /_   -4.9   0.98478    12.470
264256632 ................... 1       7.1726 /_   -4.1   0.99626    12.470        1-2      12.47 /_   26.4         1
   -                          2       7.2717 /_ -123.5      1.01    12.470        2-3     12.538 /_  -93.3    1.0054
   -                          3        7.241 /_  117.0    1.0058    12.470        3-1     12.551 /_  146.3    1.0065
263532917 ................... 1         7.09 /_   -4.9   0.98479    12.470
260761178 ................... 1         7.09 /_   -4.9   0.98478    12.470
264256731 ................... 2        7.191 /_ -124.3   0.99881    12.470
260761168 ................... 2        7.191 /_ -124.3   0.99881    12.470
258903945 ................... 1       7.0927 /_   -4.9   0.98515    12.470        1-2     12.326 /_   25.6   0.98845
   -                          2       7.1873 /_ -124.3   0.99829    12.470        2-3     12.424 /_  -94.1   0.99633
   -                          3       7.1825 /_  116.0   0.99764    12.470        3-1     12.423 /_  145.4   0.99625
263532989 ................... 1       7.0927 /_   -4.9   0.98515    12.470
633960130 ................... 1       7.1591 /_   -4.2   0.99437    12.470        1-2     12.454 /_   26.3   0.99869
   -                          2       7.2678 /_ -123.6    1.0095    12.470        2-3     12.527 /_  -93.4    1.0046
   -                          3       7.2364 /_  117.0    1.0051    12.470        3-1      12.54 /_  146.2    1.0056
633960111 ................... 1       7.1591 /_   -4.2   0.99437    12.470        1-2     12.454 /_   26.3   0.99869
   -                          2       7.2678 /_ -123.6    1.0095    12.470        2-3     12.527 /_  -93.4    1.0046
   -                          3       7.2364 /_  117.0    1.0051    12.470        3-1      12.54 /_  146.2    1.0056
261180496 ................... 2       7.3689 /_ -122.3    1.0235    12.470
264331249 ................... 2       7.3689 /_ -122.3    1.0235    12.470
260760210 ................... 1       7.1823 /_   -4.0   0.99761    12.470
260761263 ................... 3       7.1863 /_  116.1   0.99816    12.470
260761268 ................... 3       7.1863 /_  116.1   0.99816    12.470
704839763 ................... 1       7.0647 /_   -5.1   0.98127    12.470
263533214 ................... 1       7.0644 /_   -5.1   0.98123    12.470
258904683 ................... 1       7.0649 /_   -5.1    0.9813    12.470
260761248 ................... 3       7.1858 /_  116.1   0.99809    12.470
260761343 ................... 1       7.0765 /_   -5.1    0.9829    12.470
260761338 ................... 1       7.0765 /_   -5.1    0.9829    12.470
260761223 ................... 2       7.1778 /_ -124.3   0.99698    12.470
260761163 ................... 2        7.191 /_ -124.3   0.99881    12.470
260761213 ................... 2       7.1778 /_ -124.3   0.99698    12.470
261245655 ................... 2       7.3683 /_ -122.3    1.0234    12.470
261245650 ................... 2       7.3683 /_ -122.3    1.0234    12.470
260761278 ................... 3       7.1932 /_  116.4   0.99912    12.470
260761283 ................... 3       7.1932 /_  116.4   0.99912    12.470
260761198 ................... 2        7.172 /_ -124.4   0.99617    12.470
260761203 ................... 2        7.172 /_ -124.4   0.99617    12.470
260761208 ................... 2        7.172 /_ -124.4   0.99617    12.470
704839480 ................... 3       7.1949 /_  116.5   0.99935    12.470
260761183 ................... 1         7.09 /_   -4.9   0.98478    12.470
260761106 ................... 2       7.1872 /_ -124.3   0.99828    12.470
260761258 ................... 3       7.1863 /_  116.1   0.99816    12.470
264308692 ................... 3       7.1858 /_  116.1   0.99809    12.470
260761253 ................... 3       7.1858 /_  116.1   0.99809    12.470
258904350 ................... 1       7.0872 /_   -4.9   0.98439    12.470        1-2     12.323 /_   25.6   0.98825
   -                          2       7.1897 /_ -124.3   0.99863    12.470        2-3     12.424 /_  -94.1   0.99629
   -                          3        7.186 /_  116.1   0.99812    12.470        3-1     12.427 /_  145.4   0.99653
264308710 ................... 2       7.1872 /_ -124.3   0.99828    12.470
258904747 ................... 1       7.0963 /_   -4.9   0.98566    12.470        1-2     12.368 /_   25.9   0.99178
   -                          2       7.2491 /_ -124.0    1.0069    12.470        2-3     12.477 /_  -93.7    1.0005
   -                          3       7.2068 /_  116.7     1.001    12.470        3-1     12.483 /_  145.7    1.0011
263533232 ................... 1       7.0963 /_   -4.9   0.98566    12.470        1-2     12.368 /_   25.9   0.99178
   -                          2       7.2491 /_ -124.0    1.0069    12.470        2-3     12.477 /_  -93.7    1.0005
   -                          3       7.2068 /_  116.7     1.001    12.470        3-1     12.483 /_  145.7    1.0011
258896556 ................... 1       7.1725 /_   -4.1   0.99625    12.470        1-2      12.47 /_   26.4         1
   -                          2       7.2716 /_ -123.5      1.01    12.470        2-3     12.537 /_  -93.3    1.0054
   -                          3       7.2409 /_  117.0    1.0057    12.470        3-1     12.551 /_  146.3    1.0065
260762245 ................... 1       7.0963 /_   -4.9   0.98566    12.470        1-2     12.368 /_   25.9   0.99178
   -                          2       7.2491 /_ -124.0    1.0069    12.470        2-3     12.477 /_  -93.7    1.0005
   -                          3       7.2068 /_  116.7     1.001    12.470        3-1     12.483 /_  145.7    1.0011
258904206 ................... 1       7.0893 /_   -4.9   0.98469    12.470        1-2     12.326 /_   25.6   0.98849
   -                          2       7.1911 /_ -124.3   0.99882    12.470        2-3     12.426 /_  -94.1   0.99646
   -                          3       7.1864 /_  116.1   0.99817    12.470        3-1     12.428 /_  145.4   0.99666
263533052 ................... 2       7.1911 /_ -124.3   0.99882    12.470
258904488 ................... 1       7.0903 /_   -4.9   0.98483    12.470        1-2     12.322 /_   25.6   0.98816
...
